tests/fuzzer/corpus_json/24_columnar_21_random_035.json
{
  "version": "1.0",
  "type": "input",
  "is_batch": false,
  "attributes": {
    "node": [
      "id",
      "u_rated"
    ],
    "source": [
      "id",
      "node",
      "status",
      "u_ref",
      "u_ref_angle",
      "sk",
      "rx_ratio",
      "z01_ratio"
    ],
    "line": [
      "id",
      "from_node",
      "to_node",
      "from_status",
      "to_status",
      "r1",
      "x1",
      "c1",
      "tan1",
      "r0",
      "x0",
      "c0",
      "tan0",
      "i_n"
    ],
    "sym_load": [
      "id",
      "node",
      "status",
      "type",
      "p_specified",
      "q_specified"
    ]
  },
  "data": {
    "node": [
      [
        0,
        10000.0
      ],
      [
        1,
        10000.0
      ],
      [
        2,
        10000.0
      ],
      [
        3,
        10000.0
      ],
      [
        4,
        10000.0
      ],
      [
        5,
        10000.0
      ],
      [
        6,
        10000.0
      ],
      [
        7,
        10000.0
      ],
      [
        8,
        10000.0
      ],
      [
        9,
        10000.0
      ]
    ],
    "source": [
      [
        10,
        0,
        1,
        1.0494613458819209,
        0.0,
        750565896.2906321,
        0.43252256197500494,
        1.0
      ],
      [
        11,
        9,
        1,
        1.0,
        0.0,
        965575906.1181794,
        0.1,
        1.0
      ]
    ],
    "line": [
      [
        12,
        0,
        1,
        1,
        1,
        2.8337001451034567,
        3.736945484792949,
        7.548983161359918e-07,
        0.0,
        0.3,
        0.3,
        1e-09,
        0.0,
        929.9074611214331
      ],
      [
        13,
        1,
        2,
        1,
        1,
        1.370561109963719,
        1.8331090660919331,
        7.173445069748814e-07,
        0.0,
        0.3,
        0.3,
        1e-09,
        0.0,
        589.4436935443799
      ],
      [
        14,
        2,
        3,
        1,
        1,
        3.751839365687701,
        1.821453236364604,
        9.552362077987965e-07,
        0.0,
        0.3,
        0.3,
        1e-09,
        0.0,
        21.163203088189057
      ],
      [
        15,
        3,
        4,
        1,
        1,
        3.608409520062703,
        1.872736280077535,
        2.521939084626412e-08,
        0.0,
        0.3,
        0.3,
        1e-09,
        0.0,
        678.3330700636755
      ],
      [
        16,
        4,
        5,
        1,
        1,
        0.2578882509235392,
        1.1732579387643867,
        3.2498596667246203e-07,
        0.0,
        0.3,
        0.3,
        1e-09,
        0.0,
        165.47345278687231
      ],
      [
        17,
        5,
        6,
        1,
        1,
        0.82071310151965,
        0.3680744945432607,
        8.460857895108203e-07,
        0.0,
        0.3,
        0.3,
        1e-09,
        0.0,
        92.22860195503182
      ],
      [
        18,
        6,
        7,
        1,
        1,
        0.8040490961278601,
        0.3849908215627018,
        9.094209755212598e-07,
        0.0,
        0.3,
        0.3,
        1e-09,
        0.0,
        550.4025117593603
      ],
      [
        19,
        7,
        8,
        1,
        1,
        4.112415479141898,
        4.862312965661414,
        4.952532747608908e-07,
        0.0,
        0.3,
        0.3,
        1e-09,
        0.0,
        400.98140293856596
      ],
      [
        20,
        8,
        9,
        1,
        1,
        1.9446036605402195,
        1.3232239997427104,
        5.947565493705971e-07,
        0.0,
        0.3,
        0.3,
        1e-09,
        0.0,
        966.6268792125207
      ]
    ],
    "sym_load": [
      [
        21,
        1,
        1,
        0,
        77793.86017649391,
        6601.7534009455885
      ],
      [
        22,
        3,
        1,
        0,
        -85317.96875988258,
        -1876.538417762621
      ],
      [
        23,
        4,
        1,
        1,
        36157.02093777046,
        -4805.240495477155
      ],
      [
        24,
        5,
        1,
        0,
        -50687.9839511444,
        1590.1955684172026
      ],
      [
        25,
        6,
        1,
        2,
        -84115.04463173119,
        -7674.442984293583
      ],
      [
        26,
        8,
        1,
        2,
        78517.52860162503,
        2293.5601497944463
      ],
      [
        27,
        9,
        1,
        1,
        735.17237446949,
        5002.8562792046505
      ]
    ]
  }
}
